/home/user/tetra-shield-ai/results/docking/_tmp_xtal.pdb
 OpenBabel09172617303D

 58 61  0  0  1  0  0  0  0  0999 V2000
    1.8427    0.4938   -1.7277 C   0  0  0  0  0  0  0  0  0  0  0  0
    1.4243   -0.3796   -2.4861 O   0  0  0  0  0  0  0  0  0  0  0  0
    3.2176    0.3912   -1.1316 C   0  0  0  0  0  0  0  0  0  0  0  0
    4.2252   -0.6178   -1.5471 C   0  0  0  0  0  0  0  0  0  0  0  0
    5.3919   -0.5720   -1.1650 O   0  0  0  0  0  0  0  0  0  0  0  0
    3.7513   -1.6743   -2.2573 N   0  0  0  0  0  0  0  0  0  0  0  0
    3.4498    1.0885    0.0077 C   0  0  0  0  0  0  0  0  0  0  0  0
    4.6767    1.1584    0.6443 O   0  0  0  0  0  0  0  0  0  0  0  0
    2.2371    1.4129    0.8609 C   0  0  1  0  0  0  0  0  0  0  0  0
    2.3358    1.9386    2.2239 N   0  0  0  0  0  0  0  0  0  0  0  0
    3.0895    1.0897    3.1406 C   0  0  0  0  0  0  0  0  0  0  0  0
    2.6475    3.3464    2.3812 C   0  0  0  0  0  0  0  0  0  0  0  0
    1.0016    1.9992    0.1210 C   0  0  2  0  0  0  0  0  0  0  0  0
   -0.2248    1.3738    0.8347 C   0  0  0  0  0  0  0  0  0  0  0  0
   -1.5805    1.4950    0.1386 C   0  0  2  0  0  0  0  0  0  0  0  0
   -2.6832    0.7331    0.9666 C   0  0  1  0  0  0  0  0  0  0  0  0
   -2.2968    0.7264    2.3411 O   0  0  0  0  0  0  0  0  0  0  0  0
   -4.0187    1.5030    0.8743 C   0  0  0  0  0  0  0  0  0  0  0  0
   -2.9866   -0.6826    0.4611 C   0  0  0  0  0  0  0  0  0  0  0  0
   -3.6390   -1.6710    1.2349 C   0  0  0  0  0  0  0  0  0  0  0  0
   -3.7210   -1.6549    2.9626 Cl  0  0  0  0  0  0  0  0  0  0  0  0
   -4.3225   -2.7228    0.6103 C   0  0  0  0  0  0  0  0  0  0  0  0
   -4.4011   -2.7899   -0.7753 C   0  0  0  0  0  0  0  0  0  0  0  0
   -3.6971   -1.8714   -1.5386 C   0  0  0  0  0  0  0  0  0  0  0  0
   -3.9112   -1.9125   -2.8842 O   0  0  0  0  0  0  0  0  0  0  0  0
   -2.8902   -0.8870   -0.9346 C   0  0  0  0  0  0  0  0  0  0  0  0
   -1.9517   -0.0882   -1.7426 C   0  0  0  0  0  0  0  0  0  0  0  0
   -1.6100   -0.6526   -2.9550 O   0  0  0  0  0  0  0  0  0  0  0  0
   -1.3616    1.0213   -1.2775 C   0  0  0  0  0  0  0  0  0  0  0  0
   -0.3545    1.8569   -2.0271 C   0  0  2  0  0  0  0  0  0  0  0  0
   -0.3428    1.5460   -3.4218 O   0  0  0  0  0  0  0  0  0  0  0  0
    1.0552    1.7818   -1.4020 C   0  0  2  0  0  0  0  0  0  0  0  0
    1.8234    2.8502   -2.0111 O   0  0  0  0  0  0  0  0  0  0  0  0
    4.3469   -2.4771   -2.4077 H   0  0  0  0  0  0  0  0  0  0  0  0
    2.7707   -1.7428   -2.5278 H   0  0  0  0  0  0  0  0  0  0  0  0
    5.3380    0.6524    0.1190 H   0  0  0  0  0  0  0  0  0  0  0  0
    1.9302    0.3736    1.0708 H   0  0  0  0  0  0  0  0  0  0  0  0
    4.0197    1.5517    3.4897 H   0  0  0  0  0  0  0  0  0  0  0  0
    2.4632    0.8757    4.0121 H   0  0  0  0  0  0  0  0  0  0  0  0
    3.3603    0.1145    2.7150 H   0  0  0  0  0  0  0  0  0  0  0  0
    3.6946    3.5701    2.1696 H   0  0  0  0  0  0  0  0  0  0  0  0
    2.4140    3.6534    3.4067 H   0  0  0  0  0  0  0  0  0  0  0  0
    2.0389    3.9929    1.7426 H   0  0  0  0  0  0  0  0  0  0  0  0
    0.9435    3.0838    0.2706 H   0  0  0  0  0  0  0  0  0  0  0  0
   -0.0504    0.3031    1.0101 H   0  0  0  0  0  0  0  0  0  0  0  0
   -0.2874    1.8465    1.8228 H   0  0  0  0  0  0  0  0  0  0  0  0
   -1.8403    2.5611    0.1156 H   0  0  0  0  0  0  0  0  0  0  0  0
   -2.3858    1.6256    2.6975 H   0  0  0  0  0  0  0  0  0  0  0  0
   -4.7698    1.0606    1.5397 H   0  0  0  0  0  0  0  0  0  0  0  0
   -4.4230    1.4986   -0.1439 H   0  0  0  0  0  0  0  0  0  0  0  0
   -3.8978    2.5439    1.1998 H   0  0  0  0  0  0  0  0  0  0  0  0
   -4.8343   -3.4758    1.2106 H   0  0  0  0  0  0  0  0  0  0  0  0
   -5.0162   -3.5413   -1.2557 H   0  0  0  0  0  0  0  0  0  0  0  0
   -3.3411   -1.2170   -3.2744 H   0  0  0  0  0  0  0  0  0  0  0  0
   -0.7856   -0.2107   -3.2649 H   0  0  0  0  0  0  0  0  0  0  0  0
   -0.7060    2.8981   -1.9874 H   0  0  0  0  0  0  0  0  0  0  0  0
    0.3688    2.0825   -3.8216 H   0  0  0  0  0  0  0  0  0  0  0  0
    1.4700    3.7118   -1.7205 H   0  0  0  0  0  0  0  0  0  0  0  0
  1  2  2  0  0  0  0
  3  4  1  0  0  0  0
  3  1  1  0  0  0  0
  4  6  1  0  0  0  0
  5  4  2  0  0  0  0
  6 34  1  0  0  0  0
  6 35  1  0  0  0  0
  7  9  1  0  0  0  0
  7  3  2  0  0  0  0
  8  7  1  0  0  0  0
  8 36  1  0  0  0  0
  9 13  1  0  0  0  0
  9 37  1  1  0  0  0
 10 12  1  0  0  0  0
 10  9  1  0  0  0  0
 11 10  1  0  0  0  0
 11 38  1  0  0  0  0
 11 39  1  0  0  0  0
 11 40  1  0  0  0  0
 12 41  1  0  0  0  0
 12 42  1  0  0  0  0
 12 43  1  0  0  0  0
 13 32  1  0  0  0  0
 13 14  1  0  0  0  0
 13 44  1  1  0  0  0
 14 15  1  0  0  0  0
 14 45  1  0  0  0  0
 14 46  1  0  0  0  0
 15 29  1  0  0  0  0
 15 16  1  0  0  0  0
 15 47  1  6  0  0  0
 16 18  1  0  0  0  0
 16 19  1  0  0  0  0
 16 17  1  1  0  0  0
 17 48  1  0  0  0  0
 18 49  1  0  0  0  0
 18 50  1  0  0  0  0
 18 51  1  0  0  0  0
 19 20  1  0  0  0  0
 20 21  1  0  0  0  0
 20 22  2  0  0  0  0
 22 52  1  0  0  0  0
 23 22  1  0  0  0  0
 23 53  1  0  0  0  0
 24 23  2  0  0  0  0
 25 24  1  0  0  0  0
 25 54  1  0  0  0  0
 26 19  2  0  0  0  0
 26 24  1  0  0  0  0
 27 28  1  0  0  0  0
 27 26  1  0  0  0  0
 28 55  1  0  0  0  0
 29 27  2  0  0  0  0
 30 31  1  0  0  0  0
 30 29  1  0  0  0  0
 30 56  1  1  0  0  0
 31 57  1  0  0  0  0
 32 33  1  6  0  0  0
 32  1  1  0  0  0  0
 32 30  1  0  0  0  0
 33 58  1  0  0  0  0
M  END
$$$$
