/home/user/tetra-shield-ai/results/docking/_tmp_lig.pdb
 OpenBabel09172617303D

 33 26  0  0  1  0  0  0  0  0999 V2000
    0.1630    9.6400   26.2330 C   0  0  0  0  0  0  0  0  0  0  0  0
   -1.5860    8.2760   18.7510 O   0  0  0  0  0  0  0  0  0  0  0  0
   -1.9160    5.2820   19.3280 O   0  0  0  0  0  0  0  0  0  0  0  0
   -3.3560    7.8060   21.0510 O   0  0  0  0  0  0  0  0  0  0  0  0
    1.9220    3.5500   21.5810 O   0  0  0  0  0  0  0  0  0  0  0  0
    1.3810    6.8770   20.2940 C   0  0  2  0  0  0  0  0  0  0  0  0
    0.2670    8.7050   21.6760 C   0  0  2  0  0  0  0  0  0  0  0  0
    1.1290    7.4310   21.7300 C   0  0  0  0  0  0  0  0  0  0  0  0
    0.0810    6.6410   19.4790 C   0  0  2  0  0  0  0  0  0  0  0  0
    2.2270    5.5960   20.3840 C   0  0  1  0  0  0  0  0  0  0  0  0
    0.0770    9.4650   23.0210 C   0  0  2  0  0  0  0  0  0  0  0  0
   -1.0350    8.3050   21.0540 C   0  0  0  0  0  0  0  0  0  0  0  0
   -0.9080    7.8050   19.6600 C   0  0  0  0  0  0  0  0  0  0  0  0
   -0.6230    5.3400   19.8230 C   0  0  0  0  0  0  0  0  0  0  0  0
   -1.1200    8.9650   23.8250 *   0  0  0  0  0  0  0  0  0  0  0  0
    1.4010    4.4350   20.9020 C   0  0  0  0  0  0  0  0  0  0  0  0
   -2.2050    8.2050   21.7000 C   0  0  0  0  0  0  0  0  0  0  0  0
   -0.0480    4.3400   20.5240 C   0  0  0  0  0  0  0  0  0  0  0  0
   -2.2390    8.4000   23.1670 *   0  0  0  0  0  0  0  0  0  0  0  0
   -0.1360   10.9700   22.7540 C   0  0  0  0  0  0  0  0  0  0  0  0
   -1.1500    9.1280   25.2240 *   0  0  0  0  0  0  0  0  0  0  0  0
   -3.3340    7.9810   23.9430 *   0  0  0  0  0  0  0  0  0  0  0  0
   -2.2510    8.7160   25.9700 *   0  0  0  0  0  0  0  0  0  0  0  0
   -3.3410    8.1400   25.3300 *   0  0  0  0  0  0  0  0  0  0  0  0
   -0.4350    2.0150   20.5980 O   0  0  0  0  0  0  0  0  0  0  0  0
   -1.9470    3.4260   21.6240 N   0  0  0  0  0  0  0  0  0  0  0  0
   -0.8120    3.1390   20.9080 C   0  0  0  0  0  0  0  0  0  0  0  0
    2.7700    5.1750   19.0950 N   0  0  0  0  0  4  0  0  0  0  0  0
    3.3950    6.3050   18.4120 C   0  0  0  0  0  0  0  0  0  0  0  0
    3.7310    4.0890   19.2770 C   0  0  0  0  0  0  0  0  0  0  0  0
    0.3820    6.5930   18.0840 O   0  0  0  0  0  0  0  0  0  0  0  0
    1.2710    9.3390   23.7990 O   0  0  0  0  0  0  0  0  0  0  0  0
   -4.4600    7.4250   23.4020 O   0  0  0  0  0  0  0  0  0  0  0  0
  2 13  2  0  0  0  0
  3 14  1  0  0  0  0
  4 17  1  0  0  0  0
  6 10  1  0  0  0  0
  6  8  1  1  0  0  0
  7  8  1  0  0  0  0
  7 11  1  1  0  0  0
  9 31  1  6  0  0  0
  9 13  1  0  0  0  0
  9 14  1  0  0  0  0
  9  6  1  0  0  0  0
 10 28  1  6  0  0  0
 10 16  1  0  0  0  0
 11 20  1  6  0  0  0
 11 32  1  0  0  0  0
 12  7  1  0  0  0  0
 12 17  2  0  0  0  0
 13 12  1  0  0  0  0
 14 18  2  0  0  0  0
 16  5  2  0  0  0  0
 18 16  1  0  0  0  0
 18 27  1  0  0  0  0
 25 27  2  0  0  0  0
 27 26  1  0  0  0  0
 28 30  1  0  0  0  0
 29 28  1  0  0  0  0
M  END
$$$$
