/home/user/tetra-shield-ai/results/docking/_tmp_lig.pdb
 OpenBabel09172617303D

 32 26  0  0  1  0  0  0  0  0999 V2000
   -1.5010    8.2730   18.7680 O   0  0  0  0  0  0  0  0  0  0  0  0
   -1.8980    5.2820   19.3570 O   0  0  0  0  0  0  0  0  0  0  0  0
   -3.2170    7.8480   21.1110 O   0  0  0  0  0  0  0  0  0  0  0  0
    1.9710    3.4440   21.4680 O   0  0  0  0  0  0  0  0  0  0  0  0
    1.4710    6.7880   20.2110 C   0  0  2  0  0  0  0  0  0  0  0  0
    0.4470    8.6380   21.6390 C   0  0  2  0  0  0  0  0  0  0  0  0
    1.2820    7.3450   21.6550 C   0  0  0  0  0  0  0  0  0  0  0  0
    0.1390    6.5880   19.4390 C   0  0  2  0  0  0  0  0  0  0  0  0
    2.2860    5.4860   20.2690 C   0  0  1  0  0  0  0  0  0  0  0  0
    0.3200    9.3950   22.9940 C   0  0  2  0  0  0  0  0  0  0  0  0
   -0.8830    8.2750   21.0540 C   0  0  0  0  0  0  0  0  0  0  0  0
   -0.8120    7.7780   19.6560 C   0  0  0  0  0  0  0  0  0  0  0  0
   -0.5860    5.3050   19.8060 C   0  0  0  0  0  0  0  0  0  0  0  0
   -0.8800    8.9430   23.8250 *   0  0  0  0  0  0  0  0  0  0  0  0
    1.4490    4.3450   20.8120 C   0  0  0  0  0  0  0  0  0  0  0  0
   -2.0380    8.2110   21.7310 C   0  0  0  0  0  0  0  0  0  0  0  0
   -0.0140    4.2890   20.4850 C   0  0  0  0  0  0  0  0  0  0  0  0
   -2.0310    8.4130   23.1970 *   0  0  0  0  0  0  0  0  0  0  0  0
    0.1660   10.9060   22.7330 C   0  0  0  0  0  0  0  0  0  0  0  0
   -0.8760    9.1210   25.2220 *   0  0  0  0  0  0  0  0  0  0  0  0
   -3.1230    8.0370   24.0000 *   0  0  0  0  0  0  0  0  0  0  0  0
   -1.9740    8.7540   25.9960 *   0  0  0  0  0  0  0  0  0  0  0  0
   -3.0940    8.2070   25.3850 *   0  0  0  0  0  0  0  0  0  0  0  0
   -0.4110    1.9700   20.6460 O   0  0  0  0  0  0  0  0  0  0  0  0
   -1.9550    3.4280   21.5550 N   0  0  0  0  0  0  0  0  0  0  0  0
   -0.7950    3.1080   20.8930 C   0  0  0  0  0  0  0  0  0  0  0  0
    2.7740    5.0560   18.9610 N   0  0  0  0  0  4  0  0  0  0  0  0
    3.3660    6.1820   18.2430 C   0  0  0  0  0  0  0  0  0  0  0  0
    3.7480    3.9750   19.1120 C   0  0  0  0  0  0  0  0  0  0  0  0
    0.3900    6.5340   18.0350 O   0  0  0  0  0  0  0  0  0  0  0  0
    1.5450    9.2410   23.7190 O   0  0  0  0  0  0  0  0  0  0  0  0
   -4.2770    7.5150   23.4870 O   0  0  0  0  0  0  0  0  0  0  0  0
  1 12  2  0  0  0  0
  2 13  1  0  0  0  0
  3 16  1  0  0  0  0
  5  9  1  0  0  0  0
  5  7  1  1  0  0  0
  6  7  1  0  0  0  0
  6 10  1  1  0  0  0
  8 30  1  6  0  0  0
  8 12  1  0  0  0  0
  8 13  1  0  0  0  0
  8  5  1  0  0  0  0
  9 27  1  6  0  0  0
  9 15  1  0  0  0  0
 10 19  1  6  0  0  0
 10 31  1  0  0  0  0
 11  6  1  0  0  0  0
 11 16  2  0  0  0  0
 12 11  1  0  0  0  0
 13 17  2  0  0  0  0
 15  4  2  0  0  0  0
 17 15  1  0  0  0  0
 17 26  1  0  0  0  0
 24 26  2  0  0  0  0
 26 25  1  0  0  0  0
 27 29  1  0  0  0  0
 28 27  1  0  0  0  0
M  END
$$$$
